<?xml version="1.0" ?>
<template encoding-version="1.1">
  <description></description>
  <groupId>7c84501d-d10c-407c-b9f3-1d80e38fe36a</groupId>
  <name>MiNiFi source</name>
  <snippet>
    <connections>
      <id>e3fd7270-848c-3795-0000-000000000000</id>
      <parentGroupId>46f95fe5-3024-31d8-0000-000000000000</parentGroupId>
      <backPressureDataSizeThreshold>1 GB</backPressureDataSizeThreshold>
      <backPressureObjectThreshold>10000</backPressureObjectThreshold>
      <destination>
        <groupId>d5039d4b-22ab-3e7e-0000-000000000000</groupId>
        <id>4a465b32-0161-1000-ffff-ffffac2a4668</id>
        <type>REMOTE_INPUT_PORT</type>
      </destination>
      <flowFileExpiration>0 sec</flowFileExpiration>
      <labelIndex>1</labelIndex>
      <name></name>
      <selectedRelationships>success</selectedRelationships>
      <source>
        <groupId>46f95fe5-3024-31d8-0000-000000000000</groupId>
        <id>2782a6fb-1603-35de-0000-000000000000</id>
        <type>PROCESSOR</type>
      </source>
      <zIndex>0</zIndex>
    </connections>
    <processors>
      <id>2782a6fb-1603-35de-0000-000000000000</id>
      <parentGroupId>46f95fe5-3024-31d8-0000-000000000000</parentGroupId>
      <position>
        <x>20.085448144926545</x>
        <y>0.0</y>
      </position>
      <bundle>
        <artifact>nifi-standard-nar</artifact>
        <group>org.apache.nifi</group>
        <version>1.2.0.3.0.0.0-452</version>
      </bundle>
      <config>
        <bulletinLevel>WARN</bulletinLevel>
        <comments></comments>
        <concurrentlySchedulableTaskCount>1</concurrentlySchedulableTaskCount>
        <descriptors>
          <entry>
            <key>File Size</key>
            <value>
              <name>File Size</name>
            </value>
          </entry>
          <entry>
            <key>Batch Size</key>
            <value>
              <name>Batch Size</name>
            </value>
          </entry>
          <entry>
            <key>Data Format</key>
            <value>
              <name>Data Format</name>
            </value>
          </entry>
          <entry>
            <key>Unique FlowFiles</key>
            <value>
              <name>Unique FlowFiles</name>
            </value>
          </entry>
          <entry>
            <key>generate-ff-custom-text</key>
            <value>
              <name>generate-ff-custom-text</name>
            </value>
          </entry>
        </descriptors>
        <executionNode>ALL</executionNode>
        <lossTolerant>false</lossTolerant>
        <penaltyDuration>30 sec</penaltyDuration>
        <properties>
          <entry>
            <key>File Size</key>
            <value>0B</value>
          </entry>
          <entry>
            <key>Batch Size</key>
            <value>1</value>
          </entry>
          <entry>
            <key>Data Format</key>
            <value>Text</value>
          </entry>
          <entry>
            <key>Unique FlowFiles</key>
            <value>false</value>
          </entry>
          <entry>
            <key>generate-ff-custom-text</key>
          </entry>
        </properties>
        <runDurationMillis>0</runDurationMillis>
        <schedulingPeriod>0 sec</schedulingPeriod>
        <schedulingStrategy>TIMER_DRIVEN</schedulingStrategy>
        <yieldDuration>1 sec</yieldDuration>
      </config>
      <name>GenerateFlowFile</name>
      <relationships>
        <autoTerminate>false</autoTerminate>
        <name>success</name>
      </relationships>
      <style></style>
      <type>org.apache.nifi.processors.standard.GenerateFlowFile</type>
    </processors>
    <remoteProcessGroups>
      <id>d5039d4b-22ab-3e7e-0000-000000000000</id>
      <parentGroupId>46f95fe5-3024-31d8-0000-000000000000</parentGroupId>
      <position>
        <x>0.0</x>
        <y>280.142970681022</y>
      </position>
      <communicationsTimeout>30 sec</communicationsTimeout>
      <contents>
        <inputPorts>
          <concurrentlySchedulableTaskCount>1</concurrentlySchedulableTaskCount>
          <connected>true</connected>
          <exists>true</exists>
          <id>4a465b32-0161-1000-ffff-ffffac2a4668</id>
          <name>From MiNiFi</name>
          <targetRunning>false</targetRunning>
          <transmitting>false</transmitting>
          <useCompression>false</useCompression>
        </inputPorts>
      </contents>
      <proxyHost></proxyHost>
      <proxyUser></proxyUser>
      <targetUri>http://ec2-54-169-148-216.ap-southeast-1.compute.amazonaws.com:9090/nifi</targetUri>
      <targetUris>http://ec2-54-169-148-216.ap-southeast-1.compute.amazonaws.com:9090/nifi</targetUris>
      <transportProtocol>HTTP</transportProtocol>
      <yieldDuration>10 sec</yieldDuration>
    </remoteProcessGroups>
  </snippet>
  <timestamp>01/31/2018 05:48:20 UTC</timestamp>
</template>